*SPEF "IEEE 1481-1998"
*DESIGN "mealy_1001_1100"
*DATE "Mon Jun 22 11:44:25 2026"
*VENDOR "Cadence Design Systems, Inc."
*PROGRAM "Innovus"
*VERSION "21.15-s110_1"
*DESIGN_FLOW "PIN_CAP NONE" "NAME_SCOPE LOCAL"
*DIVIDER /
*DELIMITER :
*BUS_DELIMITER []
*T_UNIT 1 NS
*C_UNIT 1 PF
*R_UNIT 1 OHM
*L_UNIT 1 HENRY

// MMMC spef file for corner 'rc_corner'

*NAME_MAP

*1 FE_RN_1_0
*2 FE_RN_0_0
*3 FE_RN_1
*4 clk
*5 rst
*6 din
*7 dout_1001
*8 dout_1100
*9 dout_1101
*10 state[2]
*11 state[1]
*12 state[0]
*13 UNCONNECTED
*14 UNCONNECTED0
*15 UNCONNECTED1
*16 n_1
*17 n_2
*18 n_3
*19 n_4
*20 n_5
*21 n_6
*22 n_7
*23 n_8
*24 n_9
*25 n_10
*26 n_11
*27 n_12
*28 n_13
*29 n_14
*30 n_15
*31 n_16
*32 n_17
*33 n_23
*34 FE_RC_5_0
*35 FE_RC_4_0
*36 FE_RC_3_0
*37 FE_RC_1_0_dup
*38 FE_RC_1_0
*39 FE_RC_0_0
*40 FE_OFC0_rst
*41 dout_1100_reg
*42 dout_1101_reg
*43 dout_1001_reg
*44 g707__2398
*45 g709__5107
*46 g708__6260
*47 g713__4319
*48 g712__5526
*49 g711__6783
*50 g715__3680
*51 g716__1617
*52 g717__2802
*53 g719__1705
*54 g718__5122
*55 g714__8246
*56 g720
*57 state_reg\[2\]
*58 state_reg\[1\]
*59 state_reg\[0\]
*60 fopt2


*PORTS

*4 I *C 19.575 0
*5 I *C 42.05 12.035
*6 I *C 19.865 29.29
*7 O *C 25.955 29.29
*8 O *C 25.955 0
*9 O *C 25.955 29.29


*D_NET *1 0.000217079

*CONN
*I *34:Y O *C 12.615 16.675 *L 0 *D INVX2
*I *35:B I *C 14.645 17.255 *L 0.00552 *D NOR3X2

*CAP
1 *34:Y 4.06543e-05
2 *1:1 4.06543e-05
3 *1:2 2.71542e-05
4 *1:3 4.07312e-05
5 *1:4 4.07312e-05
6 *1:5 2.71542e-05

*RES
1 *1:5 *35:B 1.4
2 *1:4 *1:5 0.248565
3 *1:3 *1:4 0.124283
4 *1:2 *1:3 0.248565
5 *1:1 *1:2 1.4
6 *34:Y *1:1 0.372851
*END

*D_NET *2 0.000244387

*CONN
*I *36:Y O *C 10.295 17.545 *L 0 *D CLKINVX6
*I *34:A I *C 12.035 16.965 *L 0.00521 *D INVX2

*CAP
1 *2:1 8.14625e-05
2 *2:2 0.000122194
3 *2:3 4.07312e-05

*RES
1 *2:3 *34:A 1.4
2 *2:2 *2:3 0.372848
3 *2:1 *2:2 0.745696
4 *36:Y *2:1 1.4
*END

*D_NET *3 0.00056957

*CONN
*I *37:Y O *C 11.5375 16.965 *L 0 *D CLKINVX1
*I *44:B0 I *C 15.225 14.645 *L 0.00277 *D AOI21X1

*CAP
1 *3:0 4.07312e-05
2 *3:1 4.07312e-05
3 *3:2 0.000176169
4 *3:4 0.000176169
5 *3:5 6.78854e-05
6 *3:6 6.78854e-05

*RES
1 *3:6 *44:B0 1.4
2 *3:5 *3:6 0.621413
3 *3:4 *3:5 1.4
4 *3:2 *3:4 1.61569
5 *3:1 *37:Y 1.4
6 *3:0 *3:2 1.4
7 *3:0 *3:1 0.372848
*END

*D_NET *4 0.00496582

*CONN
*I *41:CK I *C 10.295 12.035 *L 0.00172 *D DFFRHQX1
*I *58:CK I *C 17.545 12.325 *L 0.00167 *D DFFRX4
*P *4 I *C 19.575 0 *L 0
*I *57:CK I *C 11.455 19.575 *L 0.00167 *D DFFRX4
*I *59:CK I *C 16.095 9.135 *L 0.00167 *D DFFRX4
*I *43:CK I *C 24.505 19.865 *L 0.00172 *D DFFRHQX1
*I *42:CK I *C 25.955 17.255 *L 0.00172 *D DFFRHQX1

*CAP
1 *4:1 1.35771e-05
2 *4:2 1.35771e-05
3 *4:4 0.000135514
4 *4:5 6.77571e-05
5 *4:6 8.13086e-05
6 *4:7 0.000176169
7 *4:8 4.07312e-05
8 *4:9 0.000176169
9 *4:10 5.43083e-05
10 *4:11 5.42057e-05
11 *4:12 0.000135771
12 *4:13 0.000121963
13 *4:14 0.000135771
14 *4:15 0.000176169
15 *4:16 5.43083e-05
16 *4:17 0.000190079
17 *4:18 0.000311683
18 *4:20 6.78854e-05
19 *4:21 0.000176502
20 *4:22 0.00055666
21 *4:23 0.000216823
22 *4:26 0.000108617
23 *4:27 0.000135514
24 *4 0.00055666
25 *4:29 0.000190079
26 *4:30 9.50395e-05
27 *57:CK 0.000135514
28 *4:32 0.000203656
29 *4:34 0.000108617
30 *4:35 0.00023081
31 *4:36 6.78854e-05
32 *4:37 0.000122194
33 *4:39 5.43083e-05

*RES
1 *4:39 *42:CK 1.4
2 *4:37 *4:39 0.497131
3 *4:36 *43:CK 1.4
4 *4:35 *4:37 0.621413
5 *4:35 *4:36 0.621413
6 *4:34 *4:35 0.869979
7 *4:32 *4:34 0.124283
8 *4:30 *59:CK 1.4
9 *4:29 *4:32 1.73996
10 *4:27 *57:CK 1.24284
11 *4:26 *4:30 0.869979
12 *4:23 *4:29 1.4
13 *4:22 *4 5.09559
14 *4:21 *4:27 1.4
15 *4:20 *4:26 0.124283
16 *4:19 *58:CK 1.4
17 *4:19 *4:24 0.220714
18 *4:18 *4:23 1.98854
19 *4:18 *4:22 1.4
20 *4:17 *4:21 1.61567
21 *4:16 *4:20 0.497131
22 *4:15 *4:19 1.4
23 *4:15 *4:18 0.869985
24 *4:14 *4:17 0.124283
25 *4:13 *4:16 1.4
26 *4:13 *4:15 0.745701
27 *4:12 *4:14 1.11854
28 *4:11 *4:13 0.372851
29 *4:10 *4:12 0.124283
30 *4:9 *4:11 0.124284
31 *4:8 *4:10 0.372848
32 *4:7 *4:9 1.4914
33 *4:6 *4:8 1.4
34 *4:5 *4:7 0.124284
35 *4:4 *4:6 0.745701
36 *4:4 *4:5 0.497134
37 *4:2 *4:4 1.4
38 *4:1 *41:CK 1.4
39 *4:1 *4:2 0.124283
40 *4:0 *4:1 0.0878571
*END

*D_NET *5 0.000822929

*CONN
*I *40:A I *C 32.045 11.745 *L 0.00521 *D CLKINVX2
*P *5 I *C 42.05 12.035 *L 0

*CAP
1 *5:2 0.000169427
2 *5:3 0.000229936
3 *5:4 0.000181528
4 *40:A 0.000229936
5 *5 1.21019e-05

*RES
1 *5:4 *5 0.124285
2 *5:3 *40:A 2.36142
3 *5:2 *5:4 1.73999
4 *5:1 *5:3 1.4
5 *5:1 *5:2 1.4
6 *5:0 *5:1 0.220714
*END

*D_NET *6 0.00434069

*CONN
*I *38:A I *C 9.425 9.425 *L 0.053 *D INVX20
*I *36:A I *C 10.005 17.255 *L 0.0156 *D CLKINVX6
*P *6 I *C 19.865 29.29 *L 0
*I *37:A I *C 11.165 16.965 *L 0.00273 *D CLKINVX1
*I *52:A I *C 21.025 16.965 *L 0.00267 *D NAND2X1
*I *49:C I *C 25.665 14.645 *L 0.00278 *D NOR3X1
*I *55:B I *C 27.695 14.645 *L 0.00534 *D NAND2X2

*CAP
1 *6:0 0.000244387
2 *6:1 0.000244387
3 *6:2 5.43083e-05
4 *6:3 0.000108617
5 *6:4 4.07312e-05
6 *6:5 0.000149348
7 *6:7 2.71542e-05
8 *6:8 5.43083e-05
9 *6:9 0.000487851
10 *6:10 4.07312e-05
11 *6:12 0.000528506
12 *6:13 4.07312e-05
13 *6:14 0.000525938
14 *6:15 5.42057e-05
15 *6:16 2.71542e-05
16 *6 0.000498784
17 *6:18 2.71542e-05
18 *6:19 0.000203271
19 *6:21 5.42057e-05
20 *6:22 0.000230374
21 *52:A 5.42057e-05
22 *6:24 8.13086e-05
23 *6:25 4.06543e-05
24 *6:26 6.78854e-05
25 *6:27 0.000211238
26 *6:28 0.000138993
27 *6:29 5.43083e-05
28 *6:30 4.99484e-05

*RES
1 *6:30 *55:B 1.4
2 *6:29 *49:C 1.4
3 *6:28 *6:30 0.497155
4 *6:27 *6:29 0.497131
5 *6:27 *6:28 0.870012
6 *6:26 *6:27 0.621413
7 *6:25 *6:26 1.4
8 *6:24 *6:25 0.372851
9 *6:22 *6:24 0.372851
10 *6:21 *52:A 0.497134
11 *6:19 *6:22 1.73997
12 *6:18 *6:21 1.4
13 *6:16 *37:A 1.4
14 *6:15 *6:19 0.124284
15 *6:14 *6:18 0.248565
16 *6:14 *6 4.72277
17 *6:13 *6:16 0.248565
18 *6:12 *6:15 0.372851
19 *6:12 *6:14 1.4
20 *6:10 *6:13 0.124283
21 *6:9 *6:12 4.47421
22 *6:8 *36:A 1.4
23 *6:8 *6:10 0.248565
24 *6:7 *6:9 1.4
25 *6:5 *6:8 0.248565
26 *6:5 *6:7 0.248565
27 *6:4 *38:A 1.4
28 *6:3 *6:5 0.869979
29 *6:2 *6:4 0.372848
30 *6:1 *6:3 0.124283
31 *6:0 *6:2 0.124283
32 *6:0 *6:1 2.11281
*END

*D_NET *7 0.000917994

*CONN
*I *43:Q O *C 23.925 20.445 *L 0 *D DFFRHQX1
*P *7 O *C 25.955 29.29 *L 0

*CAP
1 *7:1 0.00037659
2 *7:2 0.000458997
3 *7 8.24065e-05

*RES
1 *7:2 *7 0.87
2 *7:1 *7:2 3.60423
3 *43:Q *7:1 1.4
*END

*D_NET *8 0.00260382

*CONN
*I *41:Q O *C 9.715 11.455 *L 0 *D DFFRHQX1
*P *8 O *C 25.955 0 *L 0

*CAP
1 *8:0 5.43083e-05
2 *8:1 5.43083e-05
3 *8:2 0.000203271
4 *8:4 0.000216823
5 *8:5 0.00018972
6 *8:6 0.00018972
7 *8:7 0.000392991
8 *8:8 0.00037944
9 *8:9 0.000461621
10 *8 0.000461621

*RES
1 *8:9 *8 4.22561
2 *8:8 *8:9 1.4
3 *8:7 *8:8 3.47994
4 *8:6 *8:7 0.124284
5 *8:5 *8:6 1.61569
6 *8:4 *8:5 0.124284
7 *8:2 *8:4 1.86425
8 *8:1 *41:Q 1.4
9 *8:0 *8:2 1.4
10 *8:0 *8:1 0.497131
*END

*D_NET *9 0.00105177

*CONN
*I *42:Q O *C 25.375 16.675 *L 0 *D DFFRHQX1
*P *9 O *C 25.955 29.29 *L 0

*CAP
1 *9:3 2.71029e-05
2 *9:4 2.71029e-05
3 *9:5 0.000498784
4 *9 0.000498784

*RES
1 *9:5 *9 4.72277
2 *9:4 *9:5 1.4
3 *9:3 *9:4 0.248567
4 *9:1 *9:3 1.4
5 *9:1 *42:Q 1.4
6 *9:0 *9:1 0.220714
*END

*D_NET *10 0.00236091

*CONN
*I *46:AN I *C 24.215 17.255 *L 0.00174 *D NOR2BX1
*I *48:A I *C 21.315 14.935 *L 0.00259 *D NOR3X1
*I *54:A I *C 19.865 16.965 *L 0.0111 *D NAND2X4
*I *35:A I *C 16.385 16.965 *L 0.00591 *D NOR3X2
*I *44:A0 I *C 15.805 14.935 *L 0.00265 *D AOI21X1
*I *60:A I *C 30.015 14.935 *L 0.00521 *D CLKINVX2
*I *57:Q O *C 18.705 20.155 *L 0 *D DFFRX4

*CAP
1 *10:2 0.000203271
2 *10:4 0.000162617
3 *10:5 6.77571e-05
4 *10:6 4.07312e-05
5 *10:7 4.06543e-05
6 *10:8 0.000108617
7 *10:9 0.000128991
8 *10:10 0.000149066
9 *10:11 6.78854e-05
10 *10:12 0.000127542
11 *10:13 0.000203271
12 *10:14 2.71029e-05
13 *10:15 7.26114e-05
14 *10:16 2.71542e-05
15 *10:17 5.42057e-05
16 *48:A 2.71029e-05
17 *10:19 6.05095e-05
18 *10:20 2.71542e-05
19 *10:21 9.50395e-05
20 *10:22 6.24355e-05
21 *10:24 2.71542e-05
22 *10:25 6.78854e-05
23 *10:26 6.24355e-05
24 *10:28 2.71029e-05
25 *10:29 4.84076e-05
26 *10:30 2.71542e-05
27 *44:A0 2.71029e-05
28 *60:A 4.84076e-05
29 *10:33 4.07312e-05
30 *10:34 0.000122194
31 *10:35 0.000108617

*RES
1 *10:35 *57:Q 1.4
2 *10:34 *10:35 0.994261
3 *10:33 *10:34 0.124283
4 *10:30 *10:33 0.248565
5 *10:29 *60:A 0.49714
6 *10:28 *44:A0 0.248567
7 *54:A *10:30 1.4
8 *10:26 *10:29 1.4
9 *10:25 *10:28 1.4
10 *10:24 *35:A 1.4
11 *10:22 *10:26 0.621444
12 *10:21 *10:25 0.621413
13 *10:21 *10:24 0.248565
14 *10:20 *54:A 1.4
15 *10:19 *10:22 1.4
16 *10:17 *10:21 1.4
17 *10:16 *10:20 0.248565
18 *10:15 *10:19 0.621426
19 *10:14 *48:A 0.248567
20 *10:13 *10:17 0.497134
21 *10:13 *10:16 1.4
22 *10:12 *10:15 0.124285
23 *10:11 *10:14 1.4
24 *10:10 *10:13 1.36712
25 *10:9 *10:12 1.11856
26 *10:8 *10:11 0.621413
27 *10:8 *10:10 1.4
28 *10:7 *10:9 0.124284
29 *10:6 *10:8 0.372848
30 *10:5 *10:7 0.248567
31 *10:4 *10:6 1.4
32 *10:2 *10:5 0.372851
33 *10:2 *10:4 1.4914
34 *10:1 *46:AN 1.4
35 *10:1 *10:2 1.4
36 *10:0 *10:1 0.220714
*END

*D_NET *11 0.00187672

*CONN
*I *53:A I *C 32.045 14.935 *L 0.00547 *D NAND2X2
*I *49:B I *C 25.955 14.935 *L 0.00272 *D NOR3X1
*I *58:Q O *C 24.795 11.745 *L 0 *D DFFRX4
*I *48:B I *C 21.605 14.935 *L 0.00272 *D NOR3X1
*I *56:A I *C 19.865 14.645 *L 0.0105 *D CLKINVX4

*CAP
1 *11:1 3.5744e-05
2 *11:2 5.29034e-05
3 *53:A 1.8566e-05
4 *11:4 4.76339e-05
5 *11:5 0.000130993
6 *11:6 0.000130993
7 *11:7 4.76339e-05
8 *11:8 4.76339e-05
9 *11:9 7.17834e-05
10 *11:10 7.70529e-05
11 *11:11 6.45743e-05
12 *11:12 7.60215e-05
13 *49:B 2.20558e-05
14 *11:14 8.86918e-05
15 *11:15 0.00010587
16 *11:16 7.27368e-05
17 *11:17 0.000180633
18 *58:Q 2.20558e-05
19 *11:19 0.000180633
20 *11:20 6.7859e-05
21 *11:21 0.000101362
22 *11:22 2.53405e-05
23 *11:23 5.0681e-05
24 *11:24 2.53405e-05
25 *11:25 2.53405e-05
26 *11:26 3.4726e-05
27 *11:27 3.12363e-05
28 *48:B 2.20558e-05
29 *56:A 1.8566e-05

*RES
1 *11:27 *56:A 1.4
2 *11:26 *48:B 1.4
3 *11:25 *11:27 0.124286
4 *11:24 *11:26 0.124286
5 *11:23 *11:25 0.124286
6 *11:22 *11:24 0.124286
7 *11:21 *11:23 0.372857
8 *11:21 *11:22 0.124286
9 *11:20 *11:21 0.497143
10 *11:19 *11:20 1.4
11 *11:17 *11:19 1.61571
12 *11:16 *58:Q 1.4
13 *11:15 *11:17 1.4
14 *11:15 *11:16 0.497143
15 *11:14 *11:15 0.372857
16 *11:12 *11:14 0.497143
17 *11:11 *49:B 1.4
18 *11:11 *11:12 0.248571
19 *11:10 *11:11 1.4
20 *11:9 *11:10 0.621429
21 *11:8 *11:9 0.124286
22 *11:7 *11:8 0.372857
23 *11:6 *11:7 0.124286
24 *11:5 *11:6 1.24286
25 *11:4 *11:5 0.124286
26 *11:2 *11:4 0.372857
27 *11:1 *53:A 1.4
28 *11:1 *11:2 1.4
29 *11:0 *11:1 0.03
*END

*D_NET *12 0.0013314

*CONN
*I *59:Q O *C 23.345 9.715 *L 0 *D DFFRX4
*I *39:A I *C 23.635 14.645 *L 0.0105 *D INVX4
*I *49:A I *C 26.245 14.935 *L 0.00259 *D NOR3X1
*I *55:A I *C 28.275 14.935 *L 0.00547 *D NAND2X2

*CAP
1 *12:0 0.000190054
2 *12:1 3.12363e-05
3 *12:2 0.000232572
4 *12:3 3.11395e-05
5 *12:4 5.65768e-05
6 *12:5 0.000130007
7 *59:Q 1.25735e-05
8 *39:A 1.8566e-05
9 *12:8 0.000213366
10 *12:9 0.000100537
11 *12:10 6.69721e-05
12 *12:11 6.69721e-05
13 *12:12 7.18499e-05
14 *12:13 6.83601e-05
15 *49:A 2.20558e-05
16 *55:A 1.8566e-05

*RES
1 *12:13 *55:A 1.4
2 *12:12 *49:A 1.4
3 *12:11 *12:13 0.497143
4 *12:10 *12:12 0.497143
5 *12:9 *12:11 1.4
6 *12:8 *12:10 1.4
7 *12:8 *12:9 0.87
8 *12:5 *12:8 1.11857
9 *12:4 *39:A 1.4
10 *12:3 *59:Q 0.124286
11 *12:2 *12:5 1.4
12 *12:2 *12:4 0.372857
13 *12:1 *12:3 1.4
14 *12:0 *12:2 1.74
15 *12:0 *12:1 0.124286
*END

*D_NET *16 0.00139505

*CONN
*I *45:B0 I *C 13.195 14.645 *L 0.00556 *D OAI22X2
*I *55:Y O *C 28.275 14.355 *L 0 *D NAND2X2

*CAP
1 *16:1 2.71542e-05
2 *16:2 2.71542e-05
3 *16:3 0.000645395
4 *16:4 0.000645395
5 *16:5 2.49742e-05
6 *16:6 2.49742e-05

*RES
1 *16:6 *55:Y 1.4
2 *16:5 *16:6 0.248578
3 *16:4 *16:5 1.4
4 *16:3 *16:4 5.96562
5 *16:2 *16:3 1.4
6 *16:1 *16:2 0.248565
7 *45:B0 *16:1 1.4
*END

*D_NET *17 0.00167225

*CONN
*I *45:B1 I *C 13.775 14.355 *L 0.00535 *D OAI22X2
*I *53:Y O *C 32.045 14.355 *L 0 *D NAND2X2

*CAP
1 *17:2 0.000799821
2 *17:4 0.000811923
3 *17:5 3.63057e-05
4 *17:6 2.42038e-05

*RES
1 *17:7 *17:9 0.220714
2 *17:7 *53:Y 1.4
3 *17:6 *17:7 1.4
4 *17:5 *17:6 0.24857
5 *17:4 *17:5 0.124285
6 *17:2 *17:4 7.58132
7 *17:1 *45:B1 1.4
8 *17:1 *17:2 1.4
9 *17:0 *17:1 0.220714
*END

*D_NET *18 0.000108411

*CONN
*I *52:Y O *C 21.315 17.545 *L 0 *D NAND2X1
*I *47:A I *C 22.475 16.965 *L 0.00263 *D NOR2X1

*CAP
1 *52:Y 1.35514e-05
2 *18:1 2.71029e-05
3 *18:2 4.06543e-05
4 *47:A 2.71029e-05

*RES
1 *18:2 *47:A 0.248567
2 *18:1 *18:2 0.124284
3 *52:Y *18:1 0.124284
*END

*D_NET *19 0.000841573

*CONN
*I *35:C I *C 15.225 17.545 *L 0.00525 *D NOR3X2
*I *54:B I *C 19.285 17.255 *L 0.011 *D NAND2X4
*I *51:A I *C 16.965 14.935 *L 0.00547 *D NAND2X2
*I *56:Y O *C 20.155 15.225 *L 0 *D CLKINVX4

*CAP
1 *35:C 2.71029e-05
2 *19:1 2.71029e-05
3 *19:2 5.43083e-05
4 *19:3 6.78854e-05
5 *19:4 0.000176502
6 *19:5 0.000162925
7 *19:6 0.000108617
8 *19:7 0.000135771
9 *19:10 2.71542e-05
10 *19:11 2.71029e-05
11 *56:Y 2.71029e-05

*RES
1 *19:11 *56:Y 0.248567
2 *19:10 *19:11 1.4
3 *19:7 *19:10 0.248565
4 *19:6 *51:A 1.4
5 *19:5 *54:B 1.4
6 *19:5 *19:7 0.994261
7 *19:4 *19:6 0.994261
8 *19:4 *19:5 0.497131
9 *19:3 *19:4 0.124283
10 *19:2 *19:3 0.497131
11 *19:1 *19:2 1.4
12 *35:C *19:1 0.248567
*END

*D_NET *20 0.000190079

*CONN
*I *51:Y O *C 16.965 14.355 *L 0 *D NAND2X2
*I *44:A1 I *C 15.515 14.935 *L 0.00278 *D AOI21X1

*CAP
1 *20:0 9.50395e-05
2 *20:1 6.78854e-05
3 *20:2 2.71542e-05

*RES
1 *20:2 *44:A1 1.4
2 *20:1 *51:Y 1.4
3 *20:0 *20:2 0.248565
4 *20:0 *20:1 0.621413
*END

*D_NET *21 0.00170825

*CONN
*I *50:B I *C 9.425 14.645 *L 0.00534 *D NAND2X2
*I *51:B I *C 17.545 14.645 *L 0.00534 *D NAND2X2
*I *52:B I *C 21.315 16.675 *L 0.00284 *D NAND2X1
*I *39:Y O *C 23.345 15.225 *L 0 *D INVX4
*I *48:C I *C 21.895 14.645 *L 0.00278 *D NOR3X1

*CAP
1 *21:2 0.00037944
2 *21:4 0.00037944
3 *21:5 5.43083e-05
4 *21:6 5.43083e-05
5 *21:9 0.000176169
6 *21:10 0.000271029
7 *21:11 9.486e-05
8 *21:12 6.78854e-05
9 *21:13 2.71542e-05
10 *21:14 8.14625e-05
11 *21:15 4.07312e-05
12 *21:16 2.71542e-05
13 *21:17 5.43083e-05

*RES
1 *21:17 *48:C 1.4
2 *21:16 *39:Y 1.4
3 *21:15 *52:B 1.4
4 *21:14 *21:17 0.497131
5 *21:13 *21:16 0.248565
6 *21:12 *21:15 0.372848
7 *21:12 *21:14 0.248565
8 *21:11 *21:13 1.4
9 *21:10 *21:12 1.4
10 *21:10 *21:11 0.869985
11 *21:9 *21:10 1.61569
12 *21:6 *21:9 1.4
13 *21:5 *51:B 1.4
14 *21:5 *21:7 0.220714
15 *21:5 *21:6 0.497131
16 *21:4 *21:5 1.4
17 *21:2 *21:4 3.47994
18 *21:1 *50:B 1.4
19 *21:1 *21:2 1.4
20 *21:0 *21:1 0.220714
*END

*D_NET *22 0.000597391

*CONN
*I *38:Y O *C 9.135 9.135 *L 0 *D INVX20
*I *50:A I *C 10.005 14.935 *L 0.00547 *D NAND2X2

*CAP
1 *22:0 9.50395e-05
2 *22:1 0.000203656
3 *22:2 9.50395e-05
4 *22:3 0.000190079
5 *22:4 1.35771e-05

*RES
1 *22:4 *50:A 1.4
2 *22:3 *38:Y 1.4
3 *22:2 *22:4 0.124283
4 *22:1 *22:3 1.73996
5 *22:0 *22:2 0.745696
6 *22:0 *22:1 0.124283
*END

*D_NET *23 0.000162925

*CONN
*I *50:Y O *C 10.005 14.355 *L 0 *D NAND2X2
*I *45:A0 I *C 11.165 14.935 *L 0.00553 *D OAI22X2

*CAP
1 *23:1 2.71542e-05
2 *23:2 5.43083e-05
3 *23:3 5.43083e-05
4 *23:4 2.71542e-05

*RES
1 *23:4 *45:A0 1.4
2 *23:3 *23:4 0.248565
3 *23:2 *23:3 0.248565
4 *23:1 *23:2 0.248565
5 *50:Y *23:1 1.4
*END

*D_NET *24 0.000298593

*CONN
*I *49:Y O *C 25.955 15.225 *L 0 *D NOR3X1
*I *46:B I *C 24.795 16.965 *L 0.0028 *D NOR2BX1

*CAP
1 *24:0 2.71029e-05
2 *49:Y 2.71029e-05
3 *24:2 0.000122194
4 *24:3 0.000122194

*RES
1 *24:3 *46:B 1.4
2 *24:2 *24:3 1.11854
3 *24:0 *24:2 1.4
4 *24:0 *49:Y 0.248567
*END

*D_NET *25 0.000515262

*CONN
*I *48:Y O *C 21.605 15.225 *L 0 *D NOR3X1
*I *58:D I *C 18.705 12.035 *L 0.00169 *D DFFRX4

*CAP
1 *25:2 1.35514e-05
2 *25:3 0.000135514
3 *25:4 4.06543e-05
4 *25:5 0.000135514
5 *48:Y 2.71029e-05
6 *25:7 8.14625e-05
7 *25:8 8.14625e-05

*RES
1 *25:8 *58:D 1.4
2 *25:7 *25:8 0.745696
3 *25:5 *25:7 1.4
4 *25:4 *48:Y 0.248567
5 *25:3 *25:5 1.24284
6 *25:2 *25:4 0.124284
7 *25:1 *25:3 1.4
8 *25:1 *25:2 1.4
9 *25:0 *25:1 0.220714
*END

*D_NET *26 0.000380158

*CONN
*I *57:D I *C 12.615 19.865 *L 0.00169 *D DFFRX4
*I *35:Y O *C 14.935 17.835 *L 0 *D NOR3X2

*CAP
1 *26:0 9.50395e-05
2 *26:1 5.43083e-05
3 *26:2 6.78854e-05
4 *26:3 9.50395e-05
5 *26:5 6.78854e-05

*RES
1 *26:5 *35:Y 1.4
2 *26:3 *26:5 0.621413
3 *26:2 *57:D 1.4
4 *26:1 *26:3 0.248565
5 *26:0 *26:2 0.621413
6 *26:0 *26:1 0.248565
*END

*D_NET *27 0.00132866

*CONN
*I *54:Y O *C 19.865 17.545 *L 0 *D NAND2X4
*I *47:B I *C 22.765 16.965 *L 0.0028 *D NOR2X1
*I *45:A1 I *C 11.455 14.645 *L 0.00528 *D OAI22X2

*CAP
1 *27:3 0.000203271
2 *27:4 0.000162617
3 *27:5 5.42057e-05
4 *27:6 2.71542e-05
5 *27:7 0.000243926
6 *27:8 2.71542e-05
7 *27:9 0.000243926
8 *27:11 5.42057e-05
9 *27:12 4.06543e-05
10 *27:13 5.43083e-05
11 *27:14 9.50395e-05
12 *27:15 8.14625e-05
13 *27:16 4.07312e-05

*RES
1 *27:16 *45:A1 1.4
2 *27:15 *27:16 0.372848
3 *27:14 *27:15 0.372848
4 *27:13 *27:14 0.497131
5 *27:12 *27:13 1.4
6 *27:11 *27:12 0.372851
7 *27:9 *27:11 0.124284
8 *27:8 *47:B 1.4
9 *27:7 *27:9 2.11282
10 *27:6 *27:8 0.248565
11 *27:5 *27:7 0.124284
12 *27:4 *27:6 1.4
13 *27:3 *27:5 0.372851
14 *27:3 *27:4 1.4914
15 *27:1 *27:3 1.4
16 *27:1 *54:Y 1.4
17 *27:0 *27:1 0.220714
*END

*D_NET *28 0.000868252

*CONN
*I *47:Y O *C 22.765 16.385 *L 0 *D NOR2X1
*I *43:D I *C 30.595 20.155 *L 0.00232 *D DFFRHQX1

*CAP
1 *47:Y 1.35514e-05
2 *28:1 1.35514e-05
3 *28:2 5.43083e-05
4 *28:3 5.43083e-05
5 *28:4 0.000316318
6 *28:5 0.000316318
7 *28:6 4.99484e-05
8 *28:7 4.99484e-05

*RES
1 *28:7 *43:D 1.4
2 *28:6 *28:7 0.497155
3 *28:5 *28:6 1.4
4 *28:4 *28:5 3.10711
5 *28:3 *28:4 1.4
6 *28:2 *28:3 0.497131
7 *28:1 *28:2 1.4
8 *47:Y *28:1 0.124284
*END

*D_NET *29 0.000639445

*CONN
*I *46:Y O *C 25.075 16.965 *L 0 *D NOR2BX1
*I *42:D I *C 32.045 16.965 *L 0.00232 *D DFFRHQX1

*CAP
1 *29:3 7.76847e-05
2 *29:4 8.97866e-05
3 *29:5 0.000121019
4 *29:6 0.000121019
5 *29:7 0.000121019
6 *29:8 0.000108917

*RES
1 *29:9 *42:D 1.4
2 *29:9 *29:10 0.220714
3 *29:8 *29:9 1.4
4 *29:7 *29:8 1.11857
5 *29:6 *29:7 0.124285
6 *29:5 *29:6 1.11857
7 *29:4 *29:5 0.124285
8 *29:3 *29:4 0.745705
9 *29:1 *29:3 1.4
10 *29:1 *46:Y 1.4
11 *29:0 *29:1 0.220714
*END

*D_NET *30 0.000461056

*CONN
*I *45:Y O *C 12.035 14.355 *L 0 *D OAI22X2
*I *41:D I *C 16.385 11.745 *L 0.00232 *D DFFRHQX1

*CAP
1 *30:3 5.42057e-05
2 *30:4 6.77571e-05
3 *30:5 9.486e-05
4 *30:6 8.13086e-05
5 *30:7 8.14625e-05
6 *30:8 8.14625e-05

*RES
1 *30:8 *41:D 1.4
2 *30:7 *30:8 0.745696
3 *30:6 *30:7 1.4
4 *30:5 *30:6 0.745701
5 *30:4 *30:5 0.124284
6 *30:3 *30:4 0.497134
7 *30:1 *30:3 1.4
8 *30:1 *45:Y 1.4
9 *30:0 *30:1 0.220714
*END

*D_NET *31 0.000759855

*CONN
*I *44:Y O *C 14.645 14.935 *L 0 *D AOI21X1
*I *59:D I *C 17.255 9.425 *L 0.00169 *D DFFRX4

*CAP
1 *31:0 0.000190079
2 *31:1 0.000190079
3 *31:2 0.000121963
4 *31:4 0.000121963
5 *31:5 6.78854e-05
6 *31:6 6.78854e-05

*RES
1 *31:6 *59:D 1.4
2 *31:5 *31:6 0.621413
3 *31:4 *31:5 1.4
4 *31:2 *31:4 1.11855
5 *31:1 *44:Y 1.4
6 *31:0 *31:2 1.4
7 *31:0 *31:1 1.73996
*END

*D_NET *32 0.00400574

*CONN
*I *41:RN I *C 12.035 12.035 *L 0.00443 *D DFFRHQX1
*I *58:RN I *C 21.315 11.745 *L 0.00609 *D DFFRX4
*I *40:Y O *C 31.465 11.455 *L 0 *D CLKINVX2
*I *59:RN I *C 19.865 9.715 *L 0.00609 *D DFFRX4
*I *43:RN I *C 26.245 19.865 *L 0.00443 *D DFFRHQX1
*I *57:RN I *C 15.225 20.155 *L 0.00609 *D DFFRX4
*I *42:RN I *C 27.695 17.255 *L 0.00443 *D DFFRHQX1

*CAP
1 *32:1 1.35771e-05
2 *32:2 1.35771e-05
3 *32:4 0.00028458
4 *32:5 0.000298131
5 *32:6 0.000176169
6 *32:7 0.000176169
7 *32:8 5.42057e-05
8 *32:9 0.000337117
9 *32:10 0.000296463
10 *32:11 0.00023081
11 *32:13 0.000217233
12 *32:14 9.50395e-05
13 *32:15 9.68152e-05
14 *32:17 0.000190079
15 *32:18 6.78854e-05
16 *40:Y 9.68152e-05
17 *32:21 0.000176502
18 *32:23 0.000405818
19 *32:24 0.000249505
20 *32:25 0.000216823
21 *32:26 6.05095e-05
22 *32:28 1.35771e-05
23 *32:29 0.000112384
24 *32:32 1.35771e-05
25 *32:33 0.000112384

*RES
1 *32:33 *42:RN 1.4
2 *32:32 *57:RN 1.4
3 *32:32 *32:34 0.212143
4 *32:29 *32:33 1.1186
5 *32:28 *32:32 0.124283
6 *32:27 *43:RN 1.4
7 *32:27 *32:30 0.220714
8 *32:26 *32:29 1.4
9 *32:25 *32:28 1.4
10 *32:24 *32:27 1.4
11 *32:24 *32:26 0.621426
12 *32:23 *32:25 1.98854
13 *32:23 *32:24 1.73997
14 *32:21 *32:23 1.4
15 *32:18 *59:RN 1.4
16 *32:17 *32:21 1.61567
17 *32:15 *40:Y 0.994281
18 *32:14 *58:RN 1.4
19 *32:14 *32:18 0.621413
20 *32:13 *32:17 0.124283
21 *32:12 *32:16 0.220714
22 *32:12 *32:15 1.4
23 *32:11 *32:14 0.248565
24 *32:11 *32:13 1.86424
25 *32:10 *32:12 1.4
26 *32:9 *32:11 1.4
27 *32:9 *32:10 2.85854
28 *32:8 *32:9 0.372851
29 *32:7 *32:8 0.124284
30 *32:6 *32:7 1.4914
31 *32:5 *32:6 0.124284
32 *32:4 *32:5 2.60995
33 *32:2 *32:4 1.4
34 *32:1 *41:RN 1.4
35 *32:1 *32:2 0.124283
36 *32:0 *32:1 0.212143
*END

*D_NET *33 0.00019363

*CONN
*I *60:Y O *C 30.595 15.225 *L 0 *D CLKINVX2
*I *53:B I *C 32.625 14.645 *L 0.00534 *D NAND2X2

*CAP
1 *60:Y 3.63057e-05
2 *33:1 4.84076e-05
3 *33:2 6.05095e-05
4 *53:B 4.84076e-05

*RES
1 *33:2 *53:B 0.49714
2 *33:1 *33:2 0.124285
3 *60:Y *33:1 0.372855
*END

